* NGSPICE file created from Top_Module_4_ALU.ext - technology: gf180mcuC

* Black-box entry subcircuit for gf180mcu_fd_sc_mcu7t5v0__antenna abstract view
.subckt gf180mcu_fd_sc_mcu7t5v0__antenna I VDD VSS
.ends

* Black-box entry subcircuit for gf180mcu_fd_sc_mcu7t5v0__fill_1 abstract view
.subckt gf180mcu_fd_sc_mcu7t5v0__fill_1 VDD VSS
.ends

* Black-box entry subcircuit for gf180mcu_fd_sc_mcu7t5v0__clkbuf_1 abstract view
.subckt gf180mcu_fd_sc_mcu7t5v0__clkbuf_1 I Z VDD VSS
.ends

* Black-box entry subcircuit for gf180mcu_fd_sc_mcu7t5v0__nand2_1 abstract view
.subckt gf180mcu_fd_sc_mcu7t5v0__nand2_1 A1 A2 ZN VDD VSS
.ends

* Black-box entry subcircuit for gf180mcu_fd_sc_mcu7t5v0__nor2_1 abstract view
.subckt gf180mcu_fd_sc_mcu7t5v0__nor2_1 A1 A2 ZN VDD VSS
.ends

* Black-box entry subcircuit for gf180mcu_fd_sc_mcu7t5v0__fill_2 abstract view
.subckt gf180mcu_fd_sc_mcu7t5v0__fill_2 VDD VSS
.ends

* Black-box entry subcircuit for gf180mcu_fd_sc_mcu7t5v0__fillcap_4 abstract view
.subckt gf180mcu_fd_sc_mcu7t5v0__fillcap_4 VDD VSS
.ends

* Black-box entry subcircuit for gf180mcu_fd_sc_mcu7t5v0__fillcap_16 abstract view
.subckt gf180mcu_fd_sc_mcu7t5v0__fillcap_16 VDD VSS
.ends

* Black-box entry subcircuit for gf180mcu_fd_sc_mcu7t5v0__aoi21_1 abstract view
.subckt gf180mcu_fd_sc_mcu7t5v0__aoi21_1 A1 A2 B ZN VDD VSS
.ends

* Black-box entry subcircuit for gf180mcu_fd_sc_mcu7t5v0__nor3_1 abstract view
.subckt gf180mcu_fd_sc_mcu7t5v0__nor3_1 A1 A2 A3 ZN VDD VSS
.ends

* Black-box entry subcircuit for gf180mcu_fd_sc_mcu7t5v0__clkinv_1 abstract view
.subckt gf180mcu_fd_sc_mcu7t5v0__clkinv_1 I ZN VDD VSS
.ends

* Black-box entry subcircuit for gf180mcu_fd_sc_mcu7t5v0__nand3_1 abstract view
.subckt gf180mcu_fd_sc_mcu7t5v0__nand3_1 A1 A2 A3 ZN VDD VSS
.ends

* Black-box entry subcircuit for gf180mcu_fd_sc_mcu7t5v0__buf_1 abstract view
.subckt gf180mcu_fd_sc_mcu7t5v0__buf_1 I Z VDD VSS
.ends

* Black-box entry subcircuit for gf180mcu_fd_sc_mcu7t5v0__oai31_1 abstract view
.subckt gf180mcu_fd_sc_mcu7t5v0__oai31_1 A1 A2 A3 B ZN VDD VSS
.ends

* Black-box entry subcircuit for gf180mcu_fd_sc_mcu7t5v0__xor2_1 abstract view
.subckt gf180mcu_fd_sc_mcu7t5v0__xor2_1 A1 A2 Z VDD VSS
.ends

* Black-box entry subcircuit for gf180mcu_fd_sc_mcu7t5v0__fillcap_8 abstract view
.subckt gf180mcu_fd_sc_mcu7t5v0__fillcap_8 VDD VSS
.ends

* Black-box entry subcircuit for gf180mcu_fd_sc_mcu7t5v0__fillcap_32 abstract view
.subckt gf180mcu_fd_sc_mcu7t5v0__fillcap_32 VDD VSS
.ends

* Black-box entry subcircuit for gf180mcu_fd_sc_mcu7t5v0__and2_1 abstract view
.subckt gf180mcu_fd_sc_mcu7t5v0__and2_1 A1 A2 Z VDD VSS
.ends

* Black-box entry subcircuit for gf180mcu_fd_sc_mcu7t5v0__filltie abstract view
.subckt gf180mcu_fd_sc_mcu7t5v0__filltie VDD VSS
.ends

* Black-box entry subcircuit for gf180mcu_fd_sc_mcu7t5v0__fillcap_64 abstract view
.subckt gf180mcu_fd_sc_mcu7t5v0__fillcap_64 VDD VSS
.ends

* Black-box entry subcircuit for gf180mcu_fd_sc_mcu7t5v0__xnor3_1 abstract view
.subckt gf180mcu_fd_sc_mcu7t5v0__xnor3_1 A1 A2 A3 ZN VDD VSS
.ends

* Black-box entry subcircuit for gf180mcu_fd_sc_mcu7t5v0__oai21_1 abstract view
.subckt gf180mcu_fd_sc_mcu7t5v0__oai21_1 A1 A2 B ZN VDD VSS
.ends

* Black-box entry subcircuit for gf180mcu_fd_sc_mcu7t5v0__oai211_1 abstract view
.subckt gf180mcu_fd_sc_mcu7t5v0__oai211_1 A1 A2 B C ZN VDD VSS
.ends

* Black-box entry subcircuit for gf180mcu_fd_sc_mcu7t5v0__xor3_1 abstract view
.subckt gf180mcu_fd_sc_mcu7t5v0__xor3_1 A1 A2 A3 Z VDD VSS
.ends

* Black-box entry subcircuit for gf180mcu_fd_sc_mcu7t5v0__aoi221_1 abstract view
.subckt gf180mcu_fd_sc_mcu7t5v0__aoi221_1 A1 A2 B1 B2 C ZN VDD VSS
.ends

* Black-box entry subcircuit for gf180mcu_fd_sc_mcu7t5v0__or2_1 abstract view
.subckt gf180mcu_fd_sc_mcu7t5v0__or2_1 A1 A2 Z VDD VSS
.ends

* Black-box entry subcircuit for gf180mcu_fd_sc_mcu7t5v0__aoi22_1 abstract view
.subckt gf180mcu_fd_sc_mcu7t5v0__aoi22_1 A1 A2 B1 B2 ZN VDD VSS
.ends

* Black-box entry subcircuit for gf180mcu_fd_sc_mcu7t5v0__xnor2_1 abstract view
.subckt gf180mcu_fd_sc_mcu7t5v0__xnor2_1 A1 A2 ZN VDD VSS
.ends

* Black-box entry subcircuit for gf180mcu_fd_sc_mcu7t5v0__oai22_1 abstract view
.subckt gf180mcu_fd_sc_mcu7t5v0__oai22_1 A1 A2 B1 B2 ZN VDD VSS
.ends

* Black-box entry subcircuit for gf180mcu_fd_sc_mcu7t5v0__and3_1 abstract view
.subckt gf180mcu_fd_sc_mcu7t5v0__and3_1 A1 A2 A3 Z VDD VSS
.ends

* Black-box entry subcircuit for gf180mcu_fd_sc_mcu7t5v0__and4_1 abstract view
.subckt gf180mcu_fd_sc_mcu7t5v0__and4_1 A1 A2 A3 A4 Z VDD VSS
.ends

* Black-box entry subcircuit for gf180mcu_fd_sc_mcu7t5v0__aoi22_2 abstract view
.subckt gf180mcu_fd_sc_mcu7t5v0__aoi22_2 A1 A2 B1 B2 ZN VDD VSS
.ends

* Black-box entry subcircuit for gf180mcu_fd_sc_mcu7t5v0__dlyc_1 abstract view
.subckt gf180mcu_fd_sc_mcu7t5v0__dlyc_1 I Z VDD VSS
.ends

* Black-box entry subcircuit for gf180mcu_fd_sc_mcu7t5v0__endcap abstract view
.subckt gf180mcu_fd_sc_mcu7t5v0__endcap VDD VSS
.ends

* Black-box entry subcircuit for gf180mcu_fd_sc_mcu7t5v0__oai32_1 abstract view
.subckt gf180mcu_fd_sc_mcu7t5v0__oai32_1 A1 A2 A3 B1 B2 ZN VDD VSS
.ends

* Black-box entry subcircuit for gf180mcu_fd_sc_mcu7t5v0__nor2_2 abstract view
.subckt gf180mcu_fd_sc_mcu7t5v0__nor2_2 A1 A2 ZN VDD VSS
.ends

* Black-box entry subcircuit for gf180mcu_fd_sc_mcu7t5v0__aoi222_2 abstract view
.subckt gf180mcu_fd_sc_mcu7t5v0__aoi222_2 A1 A2 B1 B2 C1 C2 ZN VDD VSS
.ends

* Black-box entry subcircuit for gf180mcu_fd_sc_mcu7t5v0__nand4_2 abstract view
.subckt gf180mcu_fd_sc_mcu7t5v0__nand4_2 A1 A2 A3 A4 ZN VDD VSS
.ends

* Black-box entry subcircuit for gf180mcu_fd_sc_mcu7t5v0__nor4_1 abstract view
.subckt gf180mcu_fd_sc_mcu7t5v0__nor4_1 A1 A2 A3 A4 ZN VDD VSS
.ends

* Black-box entry subcircuit for gf180mcu_fd_sc_mcu7t5v0__dlyb_1 abstract view
.subckt gf180mcu_fd_sc_mcu7t5v0__dlyb_1 I Z VDD VSS
.ends

* Black-box entry subcircuit for gf180mcu_fd_sc_mcu7t5v0__nand3_2 abstract view
.subckt gf180mcu_fd_sc_mcu7t5v0__nand3_2 A1 A2 A3 ZN VDD VSS
.ends

* Black-box entry subcircuit for gf180mcu_fd_sc_mcu7t5v0__oai32_2 abstract view
.subckt gf180mcu_fd_sc_mcu7t5v0__oai32_2 A1 A2 A3 B1 B2 ZN VDD VSS
.ends

* Black-box entry subcircuit for gf180mcu_fd_sc_mcu7t5v0__clkbuf_3 abstract view
.subckt gf180mcu_fd_sc_mcu7t5v0__clkbuf_3 I Z VDD VSS
.ends

* Black-box entry subcircuit for gf180mcu_fd_sc_mcu7t5v0__aoi21_2 abstract view
.subckt gf180mcu_fd_sc_mcu7t5v0__aoi21_2 A1 A2 B ZN VDD VSS
.ends

* Black-box entry subcircuit for gf180mcu_fd_sc_mcu7t5v0__aoi211_1 abstract view
.subckt gf180mcu_fd_sc_mcu7t5v0__aoi211_1 A1 A2 B C ZN VDD VSS
.ends

* Black-box entry subcircuit for gf180mcu_fd_sc_mcu7t5v0__oai221_1 abstract view
.subckt gf180mcu_fd_sc_mcu7t5v0__oai221_1 A1 A2 B1 B2 C ZN VDD VSS
.ends

* Black-box entry subcircuit for gf180mcu_fd_sc_mcu7t5v0__mux2_2 abstract view
.subckt gf180mcu_fd_sc_mcu7t5v0__mux2_2 I0 I1 S Z VDD VSS
.ends

* Black-box entry subcircuit for gf180mcu_fd_sc_mcu7t5v0__nand2_2 abstract view
.subckt gf180mcu_fd_sc_mcu7t5v0__nand2_2 A1 A2 ZN VDD VSS
.ends

* Black-box entry subcircuit for gf180mcu_fd_sc_mcu7t5v0__aoi222_1 abstract view
.subckt gf180mcu_fd_sc_mcu7t5v0__aoi222_1 A1 A2 B1 B2 C1 C2 ZN VDD VSS
.ends

* Black-box entry subcircuit for gf180mcu_fd_sc_mcu7t5v0__oai21_2 abstract view
.subckt gf180mcu_fd_sc_mcu7t5v0__oai21_2 A1 A2 B ZN VDD VSS
.ends

* Black-box entry subcircuit for gf180mcu_fd_sc_mcu7t5v0__or3_1 abstract view
.subckt gf180mcu_fd_sc_mcu7t5v0__or3_1 A1 A2 A3 Z VDD VSS
.ends

* Black-box entry subcircuit for gf180mcu_fd_sc_mcu7t5v0__clkbuf_2 abstract view
.subckt gf180mcu_fd_sc_mcu7t5v0__clkbuf_2 I Z VDD VSS
.ends

* Black-box entry subcircuit for gf180mcu_fd_sc_mcu7t5v0__inv_1 abstract view
.subckt gf180mcu_fd_sc_mcu7t5v0__inv_1 I ZN VDD VSS
.ends

* Black-box entry subcircuit for gf180mcu_fd_sc_mcu7t5v0__nand4_1 abstract view
.subckt gf180mcu_fd_sc_mcu7t5v0__nand4_1 A1 A2 A3 A4 ZN VDD VSS
.ends

* Black-box entry subcircuit for gf180mcu_fd_sc_mcu7t5v0__or4_1 abstract view
.subckt gf180mcu_fd_sc_mcu7t5v0__or4_1 A1 A2 A3 A4 Z VDD VSS
.ends

* Black-box entry subcircuit for gf180mcu_fd_sc_mcu7t5v0__oai22_2 abstract view
.subckt gf180mcu_fd_sc_mcu7t5v0__oai22_2 A1 A2 B1 B2 ZN VDD VSS
.ends

* Black-box entry subcircuit for gf180mcu_fd_sc_mcu7t5v0__oai221_2 abstract view
.subckt gf180mcu_fd_sc_mcu7t5v0__oai221_2 A1 A2 B1 B2 C ZN VDD VSS
.ends

* Black-box entry subcircuit for gf180mcu_fd_sc_mcu7t5v0__oai21_4 abstract view
.subckt gf180mcu_fd_sc_mcu7t5v0__oai21_4 A1 A2 B ZN VDD VSS
.ends

* Black-box entry subcircuit for gf180mcu_fd_sc_mcu7t5v0__aoi211_4 abstract view
.subckt gf180mcu_fd_sc_mcu7t5v0__aoi211_4 A1 A2 B C ZN VDD VSS
.ends

* Black-box entry subcircuit for gf180mcu_fd_sc_mcu7t5v0__aoi221_2 abstract view
.subckt gf180mcu_fd_sc_mcu7t5v0__aoi221_2 A1 A2 B1 B2 C ZN VDD VSS
.ends

* Black-box entry subcircuit for gf180mcu_fd_sc_mcu7t5v0__aoi211_2 abstract view
.subckt gf180mcu_fd_sc_mcu7t5v0__aoi211_2 A1 A2 B C ZN VDD VSS
.ends

* Black-box entry subcircuit for gf180mcu_fd_sc_mcu7t5v0__aoi221_4 abstract view
.subckt gf180mcu_fd_sc_mcu7t5v0__aoi221_4 A1 A2 B1 B2 C ZN VDD VSS
.ends

* Black-box entry subcircuit for gf180mcu_fd_sc_mcu7t5v0__oai31_2 abstract view
.subckt gf180mcu_fd_sc_mcu7t5v0__oai31_2 A1 A2 A3 B ZN VDD VSS
.ends

* Black-box entry subcircuit for gf180mcu_fd_sc_mcu7t5v0__oai211_2 abstract view
.subckt gf180mcu_fd_sc_mcu7t5v0__oai211_2 A1 A2 B C ZN VDD VSS
.ends

* Black-box entry subcircuit for gf180mcu_fd_sc_mcu7t5v0__nor4_4 abstract view
.subckt gf180mcu_fd_sc_mcu7t5v0__nor4_4 A1 A2 A3 A4 ZN VDD VSS
.ends

* Black-box entry subcircuit for gf180mcu_fd_sc_mcu7t5v0__oai33_1 abstract view
.subckt gf180mcu_fd_sc_mcu7t5v0__oai33_1 A1 A2 A3 B1 B2 B3 ZN VDD VSS
.ends

* Black-box entry subcircuit for gf180mcu_fd_sc_mcu7t5v0__clkinv_2 abstract view
.subckt gf180mcu_fd_sc_mcu7t5v0__clkinv_2 I ZN VDD VSS
.ends

* Black-box entry subcircuit for gf180mcu_fd_sc_mcu7t5v0__nor3_4 abstract view
.subckt gf180mcu_fd_sc_mcu7t5v0__nor3_4 A1 A2 A3 ZN VDD VSS
.ends

* Black-box entry subcircuit for gf180mcu_fd_sc_mcu7t5v0__oai221_4 abstract view
.subckt gf180mcu_fd_sc_mcu7t5v0__oai221_4 A1 A2 B1 B2 C ZN VDD VSS
.ends

* Black-box entry subcircuit for gf180mcu_fd_sc_mcu7t5v0__nor3_2 abstract view
.subckt gf180mcu_fd_sc_mcu7t5v0__nor3_2 A1 A2 A3 ZN VDD VSS
.ends

* Black-box entry subcircuit for gf180mcu_fd_sc_mcu7t5v0__and4_2 abstract view
.subckt gf180mcu_fd_sc_mcu7t5v0__and4_2 A1 A2 A3 A4 Z VDD VSS
.ends

* Black-box entry subcircuit for gf180mcu_fd_sc_mcu7t5v0__nor4_2 abstract view
.subckt gf180mcu_fd_sc_mcu7t5v0__nor4_2 A1 A2 A3 A4 ZN VDD VSS
.ends

* Black-box entry subcircuit for gf180mcu_fd_sc_mcu7t5v0__nand4_4 abstract view
.subckt gf180mcu_fd_sc_mcu7t5v0__nand4_4 A1 A2 A3 A4 ZN VDD VSS
.ends

* Black-box entry subcircuit for gf180mcu_fd_sc_mcu7t5v0__dlyd_1 abstract view
.subckt gf180mcu_fd_sc_mcu7t5v0__dlyd_1 I Z VDD VSS
.ends

* Black-box entry subcircuit for gf180mcu_fd_sc_mcu7t5v0__oai211_4 abstract view
.subckt gf180mcu_fd_sc_mcu7t5v0__oai211_4 A1 A2 B C ZN VDD VSS
.ends

.subckt Top_Module_4_ALU ALU_Output[0] ALU_Output[10] ALU_Output[11] ALU_Output[12]
+ ALU_Output[13] ALU_Output[14] ALU_Output[15] ALU_Output[16] ALU_Output[17] ALU_Output[18]
+ ALU_Output[19] ALU_Output[1] ALU_Output[20] ALU_Output[21] ALU_Output[22] ALU_Output[23]
+ ALU_Output[24] ALU_Output[25] ALU_Output[26] ALU_Output[27] ALU_Output[28] ALU_Output[29]
+ ALU_Output[2] ALU_Output[30] ALU_Output[31] ALU_Output[32] ALU_Output[33] ALU_Output[34]
+ ALU_Output[35] ALU_Output[36] ALU_Output[37] ALU_Output[38] ALU_Output[39] ALU_Output[3]
+ ALU_Output[40] ALU_Output[41] ALU_Output[42] ALU_Output[43] ALU_Output[44] ALU_Output[45]
+ ALU_Output[46] ALU_Output[47] ALU_Output[48] ALU_Output[49] ALU_Output[4] ALU_Output[50]
+ ALU_Output[51] ALU_Output[52] ALU_Output[53] ALU_Output[54] ALU_Output[55] ALU_Output[56]
+ ALU_Output[57] ALU_Output[58] ALU_Output[59] ALU_Output[5] ALU_Output[60] ALU_Output[61]
+ ALU_Output[62] ALU_Output[63] ALU_Output[6] ALU_Output[7] ALU_Output[8] ALU_Output[9]
+ Exception[0] Exception[1] Exception[2] Exception[3] Operation[0] Operation[1] Operation[2]
+ Operation[3] Overflow[0] Overflow[1] Overflow[2] Overflow[3] Underflow[0] Underflow[1]
+ Underflow[2] Underflow[3] a_operand[0] a_operand[10] a_operand[11] a_operand[12]
+ a_operand[13] a_operand[14] a_operand[15] a_operand[16] a_operand[17] a_operand[18]
+ a_operand[19] a_operand[1] a_operand[20] a_operand[21] a_operand[22] a_operand[23]
+ a_operand[24] a_operand[25] a_operand[26] a_operand[27] a_operand[28] a_operand[29]
+ a_operand[2] a_operand[30] a_operand[31] a_operand[32] a_operand[33] a_operand[34]
+ a_operand[35] a_operand[36] a_operand[37] a_operand[38] a_operand[39] a_operand[3]
+ a_operand[40] a_operand[41] a_operand[42] a_operand[43] a_operand[44] a_operand[45]
+ a_operand[46] a_operand[47] a_operand[48] a_operand[49] a_operand[4] a_operand[50]
+ a_operand[51] a_operand[52] a_operand[53] a_operand[54] a_operand[55] a_operand[56]
+ a_operand[57] a_operand[58] a_operand[59] a_operand[5] a_operand[60] a_operand[61]
+ a_operand[62] a_operand[63] a_operand[6] a_operand[7] a_operand[8] a_operand[9]
+ b_operand[0] b_operand[10] b_operand[11] b_operand[12] b_operand[13] b_operand[14]
+ b_operand[15] b_operand[16] b_operand[17] b_operand[18] b_operand[19] b_operand[1]
+ b_operand[20] b_operand[21] b_operand[22] b_operand[23] b_operand[24] b_operand[25]
+ b_operand[26] b_operand[27] b_operand[28] b_operand[29] b_operand[2] b_operand[30]
+ b_operand[31] b_operand[32] b_operand[33] b_operand[34] b_operand[35] b_operand[36]
+ b_operand[37] b_operand[38] b_operand[39] b_operand[3] b_operand[40] b_operand[41]
+ b_operand[42] b_operand[43] b_operand[44] b_operand[45] b_operand[46] b_operand[47]
+ b_operand[48] b_operand[49] b_operand[4] b_operand[50] b_operand[51] b_operand[52]
+ b_operand[53] b_operand[54] b_operand[55] b_operand[56] b_operand[57] b_operand[58]
+ b_operand[59] b_operand[5] b_operand[60] b_operand[61] b_operand[62] b_operand[63]
+ b_operand[6] b_operand[7] b_operand[8] b_operand[9] vdd vss
XANTENNA__07383__I net131 vdd vss gf180mcu_fd_sc_mcu7t5v0__antenna
XFILLER_95_851 vdd vss gf180mcu_fd_sc_mcu7t5v0__fill_1
XANTENNA__09523__A2 _03210_ vdd vss gf180mcu_fd_sc_mcu7t5v0__antenna
XANTENNA__08326__A3 _01841_ vdd vss gf180mcu_fd_sc_mcu7t5v0__antenna
X_05903_ net21 _03553_ vdd vss gf180mcu_fd_sc_mcu7t5v0__clkbuf_1
X_09671_ _03368_ _03371_ _03372_ vdd vss gf180mcu_fd_sc_mcu7t5v0__nand2_1
X_06883_ _00403_ _03955_ _00411_ vdd vss gf180mcu_fd_sc_mcu7t5v0__nor2_1
XANTENNA__06337__A2 _05473_ vdd vss gf180mcu_fd_sc_mcu7t5v0__antenna
XFILLER_94_350 vdd vss gf180mcu_fd_sc_mcu7t5v0__fill_2
XFILLER_95_873 vdd vss gf180mcu_fd_sc_mcu7t5v0__fill_1
XFILLER_82_512 vdd vss gf180mcu_fd_sc_mcu7t5v0__fill_2
X_05834_ net79 _02802_ vdd vss gf180mcu_fd_sc_mcu7t5v0__clkbuf_1
XFILLER_27_428 vdd vss gf180mcu_fd_sc_mcu7t5v0__fill_1
X_08622_ _01498_ _02231_ _02232_ vdd vss gf180mcu_fd_sc_mcu7t5v0__nand2_1
XFILLER_94_372 vdd vss gf180mcu_fd_sc_mcu7t5v0__fill_2
XFILLER_54_214 vdd vss gf180mcu_fd_sc_mcu7t5v0__fill_2
XFILLER_82_534 vdd vss gf180mcu_fd_sc_mcu7t5v0__fill_1
XFILLER_82_545 vdd vss gf180mcu_fd_sc_mcu7t5v0__fill_1
XFILLER_36_951 vdd vss gf180mcu_fd_sc_mcu7t5v0__fillcap_4
XFILLER_54_247 vdd vss gf180mcu_fd_sc_mcu7t5v0__fill_1
XANTENNA__09304__S _02699_ vdd vss gf180mcu_fd_sc_mcu7t5v0__antenna
XFILLER_82_556 vdd vss gf180mcu_fd_sc_mcu7t5v0__fillcap_16
X_08553_ _02067_ _02068_ _02142_ _02157_ vdd vss gf180mcu_fd_sc_mcu7t5v0__aoi21_1
XFILLER_42_409 vdd vss gf180mcu_fd_sc_mcu7t5v0__fill_2
X_05765_ net29 _02053_ vdd vss gf180mcu_fd_sc_mcu7t5v0__clkbuf_1
XFILLER_82_589 vdd vss gf180mcu_fd_sc_mcu7t5v0__fillcap_4
X_07504_ _01020_ _01023_ _01024_ _01025_ vdd vss gf180mcu_fd_sc_mcu7t5v0__nor3_1
XANTENNA_input108_I b_operand[45] vdd vss gf180mcu_fd_sc_mcu7t5v0__antenna
X_08484_ _02008_ _02019_ _02081_ _02082_ vdd vss gf180mcu_fd_sc_mcu7t5v0__aoi21_1
X_05696_ net76 _01303_ vdd vss gf180mcu_fd_sc_mcu7t5v0__clkinv_1
XANTENNA__07837__A2 _00828_ vdd vss gf180mcu_fd_sc_mcu7t5v0__antenna
XFILLER_23_634 vdd vss gf180mcu_fd_sc_mcu7t5v0__fill_2
XFILLER_50_420 vdd vss gf180mcu_fd_sc_mcu7t5v0__fill_1
XFILLER_23_656 vdd vss gf180mcu_fd_sc_mcu7t5v0__fill_2
XFILLER_62_291 vdd vss gf180mcu_fd_sc_mcu7t5v0__fill_2
X_07435_ _00955_ _00957_ _00958_ vdd vss gf180mcu_fd_sc_mcu7t5v0__nor2_1
XFILLER_22_155 vdd vss gf180mcu_fd_sc_mcu7t5v0__fillcap_16
XFILLER_11_829 vdd vss gf180mcu_fd_sc_mcu7t5v0__fillcap_16
X_07366_ _00888_ _00889_ vdd vss gf180mcu_fd_sc_mcu7t5v0__clkbuf_1
XANTENNA__08942__I _02364_ vdd vss gf180mcu_fd_sc_mcu7t5v0__antenna
XFILLER_22_199 vdd vss gf180mcu_fd_sc_mcu7t5v0__fillcap_4
XFILLER_109_706 vdd vss gf180mcu_fd_sc_mcu7t5v0__fillcap_4
XANTENNA__11397__A2 _05179_ vdd vss gf180mcu_fd_sc_mcu7t5v0__antenna
X_09105_ _02753_ _02755_ _02756_ _02757_ vdd vss gf180mcu_fd_sc_mcu7t5v0__nand3_1
X_06317_ _03999_ _05528_ vdd vss gf180mcu_fd_sc_mcu7t5v0__buf_1
X_07297_ _00819_ _00820_ vdd vss gf180mcu_fd_sc_mcu7t5v0__clkbuf_1
XANTENNA__08262__A2 _01835_ vdd vss gf180mcu_fd_sc_mcu7t5v0__antenna
XANTENNA_input73_I b_operand[13] vdd vss gf180mcu_fd_sc_mcu7t5v0__antenna
X_09036_ _02524_ _02545_ _02680_ _02681_ _02682_ vdd vss gf180mcu_fd_sc_mcu7t5v0__oai31_1
X_06248_ _05459_ _05424_ _05460_ vdd vss gf180mcu_fd_sc_mcu7t5v0__xor2_1
XANTENNA__11149__A2 _04974_ vdd vss gf180mcu_fd_sc_mcu7t5v0__antenna
XFILLER_117_783 vdd vss gf180mcu_fd_sc_mcu7t5v0__fill_1
X_06179_ _05392_ net146 vdd vss gf180mcu_fd_sc_mcu7t5v0__clkbuf_1
XFILLER_105_945 vdd vss gf180mcu_fd_sc_mcu7t5v0__fillcap_8
XFILLER_105_967 vdd vss gf180mcu_fd_sc_mcu7t5v0__fill_1
XANTENNA__09762__A2 _03375_ vdd vss gf180mcu_fd_sc_mcu7t5v0__antenna
XFILLER_78_818 vdd vss gf180mcu_fd_sc_mcu7t5v0__fill_1
XFILLER_89_144 vdd vss gf180mcu_fd_sc_mcu7t5v0__fillcap_32
XFILLER_131_241 vdd vss gf180mcu_fd_sc_mcu7t5v0__fill_2
XFILLER_105_989 vdd vss gf180mcu_fd_sc_mcu7t5v0__fill_2
XFILLER_81_1029 vdd vss gf180mcu_fd_sc_mcu7t5v0__fill_2
XFILLER_77_317 vdd vss gf180mcu_fd_sc_mcu7t5v0__fill_2
XFILLER_131_274 vdd vss gf180mcu_fd_sc_mcu7t5v0__fill_2
XFILLER_104_488 vdd vss gf180mcu_fd_sc_mcu7t5v0__fill_2
X_09938_ _03571_ _03632_ _03663_ vdd vss gf180mcu_fd_sc_mcu7t5v0__and2_1
XANTENNA__06040__A4 _02020_ vdd vss gf180mcu_fd_sc_mcu7t5v0__antenna
XANTENNA__07293__I _00815_ vdd vss gf180mcu_fd_sc_mcu7t5v0__antenna
XANTENNA__05806__I _02489_ vdd vss gf180mcu_fd_sc_mcu7t5v0__antenna
XANTENNA__09514__A2 net61 vdd vss gf180mcu_fd_sc_mcu7t5v0__antenna
XFILLER_19_918 vdd vss gf180mcu_fd_sc_mcu7t5v0__fillcap_4
XFILLER_58_553 vdd vss gf180mcu_fd_sc_mcu7t5v0__fill_2
X_09869_ _02429_ _02655_ _03588_ vdd vss gf180mcu_fd_sc_mcu7t5v0__nand2_1
XFILLER_100_650 vdd vss gf180mcu_fd_sc_mcu7t5v0__fill_2
XANTENNA__07525__A1 _00993_ vdd vss gf180mcu_fd_sc_mcu7t5v0__antenna
XANTENNA__11321__A2 _03893_ vdd vss gf180mcu_fd_sc_mcu7t5v0__antenna
XFILLER_100_672 vdd vss gf180mcu_fd_sc_mcu7t5v0__fill_2
XFILLER_46_737 vdd vss gf180mcu_fd_sc_mcu7t5v0__fill_2
XFILLER_73_512 vdd vss gf180mcu_fd_sc_mcu7t5v0__fill_1
XFILLER_73_523 vdd vss gf180mcu_fd_sc_mcu7t5v0__fillcap_8
XFILLER_85_383 vdd vss gf180mcu_fd_sc_mcu7t5v0__fillcap_4
XFILLER_85_394 vdd vss gf180mcu_fd_sc_mcu7t5v0__fill_2
XFILLER_93_69 vdd vss gf180mcu_fd_sc_mcu7t5v0__fill_2
XFILLER_73_567 vdd vss gf180mcu_fd_sc_mcu7t5v0__fill_1
XTAP_1800 vdd vss gf180mcu_fd_sc_mcu7t5v0__filltie
XTAP_1811 vdd vss gf180mcu_fd_sc_mcu7t5v0__filltie
XTAP_1822 vdd vss gf180mcu_fd_sc_mcu7t5v0__filltie
XFILLER_26_63 vdd vss gf180mcu_fd_sc_mcu7t5v0__fill_1
XFILLER_14_601 vdd vss gf180mcu_fd_sc_mcu7t5v0__fill_2
XTAP_1833 vdd vss gf180mcu_fd_sc_mcu7t5v0__filltie
XFILLER_14_623 vdd vss gf180mcu_fd_sc_mcu7t5v0__fill_2
XTAP_1844 vdd vss gf180mcu_fd_sc_mcu7t5v0__filltie
XTAP_1855 vdd vss gf180mcu_fd_sc_mcu7t5v0__filltie
XFILLER_53_280 vdd vss gf180mcu_fd_sc_mcu7t5v0__fill_1
XTAP_1866 vdd vss gf180mcu_fd_sc_mcu7t5v0__filltie
XANTENNA__09013__I _02656_ vdd vss gf180mcu_fd_sc_mcu7t5v0__antenna
XFILLER_41_442 vdd vss gf180mcu_fd_sc_mcu7t5v0__fill_2
X_10713_ _04365_ _04384_ _04451_ _04502_ vdd vss gf180mcu_fd_sc_mcu7t5v0__nand3_1
XANTENNA__10159__I _03902_ vdd vss gf180mcu_fd_sc_mcu7t5v0__antenna
XTAP_1877 vdd vss gf180mcu_fd_sc_mcu7t5v0__filltie
XFILLER_13_144 vdd vss gf180mcu_fd_sc_mcu7t5v0__fillcap_64
XTAP_1888 vdd vss gf180mcu_fd_sc_mcu7t5v0__filltie
XTAP_1899 vdd vss gf180mcu_fd_sc_mcu7t5v0__filltie
XANTENNA__06500__A2 _00026_ vdd vss gf180mcu_fd_sc_mcu7t5v0__antenna
XFILLER_41_486 vdd vss gf180mcu_fd_sc_mcu7t5v0__fill_2
XFILLER_139_330 vdd vss gf180mcu_fd_sc_mcu7t5v0__fill_2
XFILLER_9_137 vdd vss gf180mcu_fd_sc_mcu7t5v0__fillcap_4
X_10644_ _04363_ _04426_ _04427_ _04428_ vdd vss gf180mcu_fd_sc_mcu7t5v0__xnor3_1
XFILLER_42_51 vdd vss gf180mcu_fd_sc_mcu7t5v0__fill_2
XFILLER_42_62 vdd vss gf180mcu_fd_sc_mcu7t5v0__fill_2
XFILLER_42_73 vdd vss gf180mcu_fd_sc_mcu7t5v0__fill_2
XANTENNA__11388__A2 _03910_ vdd vss gf180mcu_fd_sc_mcu7t5v0__antenna
XFILLER_127_514 vdd vss gf180mcu_fd_sc_mcu7t5v0__fill_2
X_10575_ _04351_ _04315_ _04353_ vdd vss gf180mcu_fd_sc_mcu7t5v0__and2_1
XANTENNA__06264__A1 net83 vdd vss gf180mcu_fd_sc_mcu7t5v0__antenna
XANTENNA__10060__A2 _03790_ vdd vss gf180mcu_fd_sc_mcu7t5v0__antenna
XANTENNA__06372__I _05279_ vdd vss gf180mcu_fd_sc_mcu7t5v0__antenna
XFILLER_138_1008 vdd vss gf180mcu_fd_sc_mcu7t5v0__fillcap_4
XFILLER_5_354 vdd vss gf180mcu_fd_sc_mcu7t5v0__fill_1
XFILLER_54_9 vdd vss gf180mcu_fd_sc_mcu7t5v0__fill_2
XFILLER_138_1019 vdd vss gf180mcu_fd_sc_mcu7t5v0__fill_2
XANTENNA__09202__A1 _02784_ vdd vss gf180mcu_fd_sc_mcu7t5v0__antenna
XFILLER_107_282 vdd vss gf180mcu_fd_sc_mcu7t5v0__fill_2
XFILLER_107_293 vdd vss gf180mcu_fd_sc_mcu7t5v0__fill_2
XANTENNA__10899__A1 _03898_ vdd vss gf180mcu_fd_sc_mcu7t5v0__antenna
XANTENNA__07764__A1 _00805_ vdd vss gf180mcu_fd_sc_mcu7t5v0__antenna
X_11127_ _04893_ _04917_ _04952_ vdd vss gf180mcu_fd_sc_mcu7t5v0__nand2_1
XFILLER_110_425 vdd vss gf180mcu_fd_sc_mcu7t5v0__fillcap_8
XFILLER_68_339 vdd vss gf180mcu_fd_sc_mcu7t5v0__fill_2
XFILLER_110_447 vdd vss gf180mcu_fd_sc_mcu7t5v0__fill_2
XANTENNA__05716__I net13 vdd vss gf180mcu_fd_sc_mcu7t5v0__antenna
XFILLER_77_851 vdd vss gf180mcu_fd_sc_mcu7t5v0__fill_1
X_11058_ _04770_ _04776_ _04877_ _04878_ vdd vss gf180mcu_fd_sc_mcu7t5v0__oai21_1
XFILLER_37_704 vdd vss gf180mcu_fd_sc_mcu7t5v0__fillcap_4
XANTENNA__07516__A1 _00832_ vdd vss gf180mcu_fd_sc_mcu7t5v0__antenna
XFILLER_76_361 vdd vss gf180mcu_fd_sc_mcu7t5v0__fill_2
XFILLER_97_1003 vdd vss gf180mcu_fd_sc_mcu7t5v0__fill_2
X_10009_ _03739_ _03735_ _03740_ vdd vss gf180mcu_fd_sc_mcu7t5v0__nor2_1
XFILLER_97_1014 vdd vss gf180mcu_fd_sc_mcu7t5v0__fill_2
XFILLER_76_383 vdd vss gf180mcu_fd_sc_mcu7t5v0__fill_2
XFILLER_64_534 vdd vss gf180mcu_fd_sc_mcu7t5v0__fill_1
XFILLER_36_236 vdd vss gf180mcu_fd_sc_mcu7t5v0__fill_2
XFILLER_36_269 vdd vss gf180mcu_fd_sc_mcu7t5v0__fillcap_16
XFILLER_64_589 vdd vss gf180mcu_fd_sc_mcu7t5v0__fill_1
XFILLER_17_461 vdd vss gf180mcu_fd_sc_mcu7t5v0__fillcap_4
XFILLER_33_921 vdd vss gf180mcu_fd_sc_mcu7t5v0__fill_2
XANTENNA__11076__A1 net109 vdd vss gf180mcu_fd_sc_mcu7t5v0__antenna
XFILLER_44_280 vdd vss gf180mcu_fd_sc_mcu7t5v0__fill_2
XANTENNA__10823__A1 _04363_ vdd vss gf180mcu_fd_sc_mcu7t5v0__antenna
XANTENNA__08492__A2 _00828_ vdd vss gf180mcu_fd_sc_mcu7t5v0__antenna
XFILLER_60_784 vdd vss gf180mcu_fd_sc_mcu7t5v0__fill_2
X_07220_ _00743_ _00744_ vdd vss gf180mcu_fd_sc_mcu7t5v0__clkbuf_1
XANTENNA__08762__I net50 vdd vss gf180mcu_fd_sc_mcu7t5v0__antenna
XFILLER_34_1031 vdd vss gf180mcu_fd_sc_mcu7t5v0__fillcap_8
XFILLER_80_2 vdd vss gf180mcu_fd_sc_mcu7t5v0__fill_1
X_07151_ _00668_ _00676_ vdd vss gf180mcu_fd_sc_mcu7t5v0__clkinv_1
XFILLER_118_525 vdd vss gf180mcu_fd_sc_mcu7t5v0__fillcap_4
XANTENNA__09441__A1 _03028_ vdd vss gf180mcu_fd_sc_mcu7t5v0__antenna
XANTENNA__08244__A2 _00933_ vdd vss gf180mcu_fd_sc_mcu7t5v0__antenna
XFILLER_118_547 vdd vss gf180mcu_fd_sc_mcu7t5v0__fillcap_4
X_06102_ _04086_ _05317_ vdd vss gf180mcu_fd_sc_mcu7t5v0__clkbuf_1
XANTENNA__06255__A1 _05301_ vdd vss gf180mcu_fd_sc_mcu7t5v0__antenna
X_07082_ _00538_ _00548_ _00607_ _00608_ vdd vss gf180mcu_fd_sc_mcu7t5v0__aoi21_1
XANTENNA__10018__B _03749_ vdd vss gf180mcu_fd_sc_mcu7t5v0__antenna
X_06033_ _04301_ _02997_ _03160_ _04010_ _04962_ vdd vss gf180mcu_fd_sc_mcu7t5v0__oai211_1
XFILLER_113_241 vdd vss gf180mcu_fd_sc_mcu7t5v0__fillcap_4
XFILLER_113_252 vdd vss gf180mcu_fd_sc_mcu7t5v0__fill_2
XFILLER_113_263 vdd vss gf180mcu_fd_sc_mcu7t5v0__fill_2
XANTENNA__10532__I net33 vdd vss gf180mcu_fd_sc_mcu7t5v0__antenna
XFILLER_87_648 vdd vss gf180mcu_fd_sc_mcu7t5v0__fill_2
XFILLER_113_296 vdd vss gf180mcu_fd_sc_mcu7t5v0__fill_1
X_07984_ _01525_ _01537_ _01538_ _01539_ vdd vss gf180mcu_fd_sc_mcu7t5v0__xnor3_1
XFILLER_68_840 vdd vss gf180mcu_fd_sc_mcu7t5v0__fill_1
X_09723_ _03405_ _03413_ _03428_ _03429_ vdd vss gf180mcu_fd_sc_mcu7t5v0__xor3_1
XFILLER_47_29 vdd vss gf180mcu_fd_sc_mcu7t5v0__fillcap_4
X_06935_ _03683_ _05628_ _00463_ vdd vss gf180mcu_fd_sc_mcu7t5v0__nand2_1
XFILLER_110_981 vdd vss gf180mcu_fd_sc_mcu7t5v0__fillcap_16
XFILLER_83_821 vdd vss gf180mcu_fd_sc_mcu7t5v0__fill_2
XFILLER_67_383 vdd vss gf180mcu_fd_sc_mcu7t5v0__fill_2
X_09654_ _03232_ _00237_ _01189_ _03249_ _03353_ _03354_ vdd vss gf180mcu_fd_sc_mcu7t5v0__aoi221_1
X_06866_ _01401_ _00395_ vdd vss gf180mcu_fd_sc_mcu7t5v0__buf_1
XFILLER_83_854 vdd vss gf180mcu_fd_sc_mcu7t5v0__fill_1
XFILLER_27_258 vdd vss gf180mcu_fd_sc_mcu7t5v0__fillcap_16
X_08605_ _02169_ _02213_ _02214_ vdd vss gf180mcu_fd_sc_mcu7t5v0__xor2_1
XFILLER_55_567 vdd vss gf180mcu_fd_sc_mcu7t5v0__fill_1
X_05817_ _02607_ _02618_ vdd vss gf180mcu_fd_sc_mcu7t5v0__clkinv_1
X_09585_ _03199_ _03208_ _03278_ vdd vss gf180mcu_fd_sc_mcu7t5v0__xor2_1
X_06797_ _00261_ _00303_ _00325_ _00326_ vdd vss gf180mcu_fd_sc_mcu7t5v0__oai21_1
XTAP_1107 vdd vss gf180mcu_fd_sc_mcu7t5v0__filltie
XFILLER_70_515 vdd vss gf180mcu_fd_sc_mcu7t5v0__fill_2
XFILLER_83_898 vdd vss gf180mcu_fd_sc_mcu7t5v0__fillcap_16
XTAP_1118 vdd vss gf180mcu_fd_sc_mcu7t5v0__filltie
XANTENNA__11067__A1 _03872_ vdd vss gf180mcu_fd_sc_mcu7t5v0__antenna
XTAP_1129 vdd vss gf180mcu_fd_sc_mcu7t5v0__filltie
X_08536_ _02117_ _02138_ _02139_ vdd vss gf180mcu_fd_sc_mcu7t5v0__xor2_1
X_05748_ _01858_ _01705_ _01868_ vdd vss gf180mcu_fd_sc_mcu7t5v0__or2_1
XFILLER_23_420 vdd vss gf180mcu_fd_sc_mcu7t5v0__fillcap_4
XANTENNA__10814__A1 _04190_ vdd vss gf180mcu_fd_sc_mcu7t5v0__antenna
X_05679_ _01108_ _01119_ vdd vss gf180mcu_fd_sc_mcu7t5v0__clkbuf_1
X_08467_ _01774_ _02055_ _02056_ _02054_ _02051_ _02064_ vdd vss gf180mcu_fd_sc_mcu7t5v0__aoi221_1
XFILLER_50_250 vdd vss gf180mcu_fd_sc_mcu7t5v0__fillcap_4
XFILLER_50_261 vdd vss gf180mcu_fd_sc_mcu7t5v0__fill_1
XANTENNA__08672__I _02285_ vdd vss gf180mcu_fd_sc_mcu7t5v0__antenna
X_07418_ _00939_ _00940_ _00941_ vdd vss gf180mcu_fd_sc_mcu7t5v0__nand2_1
X_08398_ _01934_ _01963_ _01988_ _01989_ vdd vss gf180mcu_fd_sc_mcu7t5v0__oai21_1
XFILLER_12_21 vdd vss gf180mcu_fd_sc_mcu7t5v0__fillcap_8
X_07349_ _00871_ _00872_ vdd vss gf180mcu_fd_sc_mcu7t5v0__clkbuf_1
XANTENNA__07288__I _00810_ vdd vss gf180mcu_fd_sc_mcu7t5v0__antenna
XFILLER_128_32 vdd vss gf180mcu_fd_sc_mcu7t5v0__fill_2
X_10360_ _04120_ _04121_ _04122_ vdd vss gf180mcu_fd_sc_mcu7t5v0__xor2_1
XFILLER_136_355 vdd vss gf180mcu_fd_sc_mcu7t5v0__fill_2
XANTENNA__09983__A2 _02334_ vdd vss gf180mcu_fd_sc_mcu7t5v0__antenna
XFILLER_124_506 vdd vss gf180mcu_fd_sc_mcu7t5v0__fill_1
XFILLER_124_517 vdd vss gf180mcu_fd_sc_mcu7t5v0__fill_2
X_09019_ _02409_ _02563_ _02663_ _02664_ vdd vss gf180mcu_fd_sc_mcu7t5v0__oai21_1
X_10291_ _04009_ _04048_ vdd vss gf180mcu_fd_sc_mcu7t5v0__clkbuf_1
XFILLER_3_847 vdd vss gf180mcu_fd_sc_mcu7t5v0__fillcap_4
XFILLER_117_591 vdd vss gf180mcu_fd_sc_mcu7t5v0__fill_2
XFILLER_105_742 vdd vss gf180mcu_fd_sc_mcu7t5v0__fill_2
XFILLER_132_572 vdd vss gf180mcu_fd_sc_mcu7t5v0__fill_2
XFILLER_78_648 vdd vss gf180mcu_fd_sc_mcu7t5v0__fill_2
XFILLER_59_851 vdd vss gf180mcu_fd_sc_mcu7t5v0__fill_1
XFILLER_144_97 vdd vss gf180mcu_fd_sc_mcu7t5v0__fillcap_4
XFILLER_120_778 vdd vss gf180mcu_fd_sc_mcu7t5v0__fill_2
XFILLER_19_715 vdd vss gf180mcu_fd_sc_mcu7t5v0__fill_2
XFILLER_46_534 vdd vss gf180mcu_fd_sc_mcu7t5v0__fill_1
XFILLER_37_62 vdd vss gf180mcu_fd_sc_mcu7t5v0__fill_1
XANTENNA__06706__C1 _00235_ vdd vss gf180mcu_fd_sc_mcu7t5v0__antenna
XFILLER_85_180 vdd vss gf180mcu_fd_sc_mcu7t5v0__fill_2
XANTENNA__08171__A1 _00789_ vdd vss gf180mcu_fd_sc_mcu7t5v0__antenna
XFILLER_18_247 vdd vss gf180mcu_fd_sc_mcu7t5v0__fill_1
XFILLER_37_73 vdd vss gf180mcu_fd_sc_mcu7t5v0__fill_2
XFILLER_34_707 vdd vss gf180mcu_fd_sc_mcu7t5v0__fill_2
XTAP_2320 vdd vss gf180mcu_fd_sc_mcu7t5v0__filltie
XFILLER_37_84 vdd vss gf180mcu_fd_sc_mcu7t5v0__fill_2
XTAP_2331 vdd vss gf180mcu_fd_sc_mcu7t5v0__filltie
XFILLER_46_589 vdd vss gf180mcu_fd_sc_mcu7t5v0__fill_2
XTAP_2342 vdd vss gf180mcu_fd_sc_mcu7t5v0__filltie
XTAP_2353 vdd vss gf180mcu_fd_sc_mcu7t5v0__filltie
XTAP_2364 vdd vss gf180mcu_fd_sc_mcu7t5v0__filltie
XFILLER_61_537 vdd vss gf180mcu_fd_sc_mcu7t5v0__fill_1
XTAP_2375 vdd vss gf180mcu_fd_sc_mcu7t5v0__filltie
XTAP_1630 vdd vss gf180mcu_fd_sc_mcu7t5v0__filltie
XFILLER_26_280 vdd vss gf180mcu_fd_sc_mcu7t5v0__fill_2
XFILLER_61_559 vdd vss gf180mcu_fd_sc_mcu7t5v0__fill_1
XTAP_1641 vdd vss gf180mcu_fd_sc_mcu7t5v0__filltie
XTAP_2386 vdd vss gf180mcu_fd_sc_mcu7t5v0__filltie
XTAP_2397 vdd vss gf180mcu_fd_sc_mcu7t5v0__filltie
XFILLER_14_442 vdd vss gf180mcu_fd_sc_mcu7t5v0__fillcap_4
XTAP_1652 vdd vss gf180mcu_fd_sc_mcu7t5v0__filltie
XANTENNA__10805__A1 _03907_ vdd vss gf180mcu_fd_sc_mcu7t5v0__antenna
XFILLER_53_50 vdd vss gf180mcu_fd_sc_mcu7t5v0__fill_2
XTAP_1663 vdd vss gf180mcu_fd_sc_mcu7t5v0__filltie
XANTENNA__10805__B2 _04235_ vdd vss gf180mcu_fd_sc_mcu7t5v0__antenna
XTAP_1674 vdd vss gf180mcu_fd_sc_mcu7t5v0__filltie
XTAP_1685 vdd vss gf180mcu_fd_sc_mcu7t5v0__filltie
XTAP_1696 vdd vss gf180mcu_fd_sc_mcu7t5v0__filltie
XFILLER_41_283 vdd vss gf180mcu_fd_sc_mcu7t5v0__fill_1
XANTENNA__06485__A1 _03444_ vdd vss gf180mcu_fd_sc_mcu7t5v0__antenna