*SPEF "ieee 1481-1999"
*DESIGN "user_project_wrapper"
*DATE "11:11:11 Fri 11 11, 1111"
*VENDOR "OpenRCX"
*PROGRAM "Parallel Extraction"
*VERSION "1.0"
*DESIGN_FLOW "NAME_SCOPE LOCAL" "PIN_CAP NONE"
*DIVIDER /
*DELIMITER :
*BUS_DELIMITER []
*T_UNIT 1 NS
*C_UNIT 1 PF
*R_UNIT 1 OHM
*L_UNIT 1 HENRY

*NAME_MAP
*1 io_in[0]
*2 io_in[10]
*3 io_in[11]
*4 io_in[12]
*5 io_in[13]
*6 io_in[14]
*7 io_in[15]
*8 io_in[16]
*9 io_in[17]
*10 io_in[18]
*11 io_in[19]
*12 io_in[1]
*13 io_in[20]
*14 io_in[21]
*15 io_in[22]
*16 io_in[23]
*17 io_in[24]
*18 io_in[25]
*19 io_in[26]
*20 io_in[27]
*21 io_in[28]
*22 io_in[29]
*23 io_in[2]
*24 io_in[30]
*25 io_in[31]
*26 io_in[32]
*27 io_in[33]
*28 io_in[34]
*29 io_in[35]
*30 io_in[36]
*31 io_in[37]
*32 io_in[3]
*33 io_in[4]
*34 io_in[5]
*35 io_in[6]
*36 io_in[7]
*37 io_in[8]
*38 io_in[9]
*39 io_oeb[0]
*40 io_oeb[10]
*41 io_oeb[11]
*42 io_oeb[12]
*43 io_oeb[13]
*44 io_oeb[14]
*45 io_oeb[15]
*46 io_oeb[16]
*47 io_oeb[17]
*48 io_oeb[18]
*49 io_oeb[19]
*50 io_oeb[1]
*51 io_oeb[20]
*52 io_oeb[21]
*53 io_oeb[22]
*54 io_oeb[23]
*55 io_oeb[24]
*56 io_oeb[25]
*57 io_oeb[26]
*58 io_oeb[27]
*59 io_oeb[28]
*60 io_oeb[29]
*61 io_oeb[2]
*62 io_oeb[30]
*63 io_oeb[31]
*64 io_oeb[32]
*65 io_oeb[33]
*66 io_oeb[34]
*67 io_oeb[35]
*68 io_oeb[36]
*69 io_oeb[37]
*70 io_oeb[3]
*71 io_oeb[4]
*72 io_oeb[5]
*73 io_oeb[6]
*74 io_oeb[7]
*75 io_oeb[8]
*76 io_oeb[9]
*77 io_out[0]
*78 io_out[10]
*79 io_out[11]
*80 io_out[12]
*81 io_out[13]
*82 io_out[14]
*83 io_out[15]
*84 io_out[16]
*85 io_out[17]
*86 io_out[18]
*87 io_out[19]
*88 io_out[1]
*89 io_out[20]
*90 io_out[21]
*91 io_out[22]
*92 io_out[23]
*93 io_out[24]
*94 io_out[25]
*95 io_out[26]
*96 io_out[27]
*97 io_out[28]
*98 io_out[29]
*99 io_out[2]
*100 io_out[30]
*101 io_out[31]
*102 io_out[32]
*103 io_out[33]
*104 io_out[34]
*105 io_out[35]
*106 io_out[36]
*107 io_out[37]
*108 io_out[3]
*109 io_out[4]
*110 io_out[5]
*111 io_out[6]
*112 io_out[7]
*113 io_out[8]
*114 io_out[9]
*115 la_data_in[0]
*116 la_data_in[10]
*117 la_data_in[11]
*118 la_data_in[12]
*119 la_data_in[13]
*120 la_data_in[14]
*121 la_data_in[15]
*122 la_data_in[16]
*123 la_data_in[17]
*124 la_data_in[18]
*125 la_data_in[19]
*126 la_data_in[1]
*127 la_data_in[20]
*128 la_data_in[21]
*129 la_data_in[22]
*130 la_data_in[23]
*131 la_data_in[24]
*132 la_data_in[25]
*133 la_data_in[26]
*134 la_data_in[27]
*135 la_data_in[28]
*136 la_data_in[29]
*137 la_data_in[2]
*138 la_data_in[30]
*139 la_data_in[31]
*140 la_data_in[32]
*141 la_data_in[33]
*142 la_data_in[34]
*143 la_data_in[35]
*144 la_data_in[36]
*145 la_data_in[37]
*146 la_data_in[38]
*147 la_data_in[39]
*148 la_data_in[3]
*149 la_data_in[40]
*150 la_data_in[41]
*151 la_data_in[42]
*152 la_data_in[43]
*153 la_data_in[44]
*154 la_data_in[45]
*155 la_data_in[46]
*156 la_data_in[47]
*157 la_data_in[48]
*158 la_data_in[49]
*159 la_data_in[4]
*160 la_data_in[50]
*161 la_data_in[51]
*162 la_data_in[52]
*163 la_data_in[53]
*164 la_data_in[54]
*165 la_data_in[55]
*166 la_data_in[56]
*167 la_data_in[57]
*168 la_data_in[58]
*169 la_data_in[59]
*170 la_data_in[5]
*171 la_data_in[60]
*172 la_data_in[61]
*173 la_data_in[62]
*174 la_data_in[63]
*175 la_data_in[6]
*176 la_data_in[7]
*177 la_data_in[8]
*178 la_data_in[9]
*179 la_data_out[0]
*180 la_data_out[10]
*181 la_data_out[11]
*182 la_data_out[12]
*183 la_data_out[13]
*184 la_data_out[14]
*185 la_data_out[15]
*186 la_data_out[16]
*187 la_data_out[17]
*188 la_data_out[18]
*189 la_data_out[19]
*190 la_data_out[1]
*191 la_data_out[20]
*192 la_data_out[21]
*193 la_data_out[22]
*194 la_data_out[23]
*195 la_data_out[24]
*196 la_data_out[25]
*197 la_data_out[26]
*198 la_data_out[27]
*199 la_data_out[28]
*200 la_data_out[29]
*201 la_data_out[2]
*202 la_data_out[30]
*203 la_data_out[31]
*204 la_data_out[32]
*205 la_data_out[33]
*206 la_data_out[34]
*207 la_data_out[35]
*208 la_data_out[36]
*209 la_data_out[37]
*210 la_data_out[38]
*211 la_data_out[39]
*212 la_data_out[3]
*213 la_data_out[40]
*214 la_data_out[41]
*215 la_data_out[42]
*216 la_data_out[43]
*217 la_data_out[44]
*218 la_data_out[45]
*219 la_data_out[46]
*220 la_data_out[47]
*221 la_data_out[48]
*222 la_data_out[49]
*223 la_data_out[4]
*224 la_data_out[50]
*225 la_data_out[51]
*226 la_data_out[52]
*227 la_data_out[53]
*228 la_data_out[54]
*229 la_data_out[55]
*230 la_data_out[56]
*231 la_data_out[57]
*232 la_data_out[58]
*233 la_data_out[59]
*234 la_data_out[5]
*235 la_data_out[60]
*236 la_data_out[61]
*237 la_data_out[62]
*238 la_data_out[63]
*239 la_data_out[6]
*240 la_data_out[7]
*241 la_data_out[8]
*242 la_data_out[9]
*243 la_oenb[0]
*244 la_oenb[10]
*245 la_oenb[11]
*246 la_oenb[12]
*247 la_oenb[13]
*248 la_oenb[14]
*249 la_oenb[15]
*250 la_oenb[16]
*251 la_oenb[17]
*252 la_oenb[18]
*253 la_oenb[19]
*254 la_oenb[1]
*255 la_oenb[20]
*256 la_oenb[21]
*257 la_oenb[22]
*258 la_oenb[23]
*259 la_oenb[24]
*260 la_oenb[25]
*261 la_oenb[26]
*262 la_oenb[27]
*263 la_oenb[28]
*264 la_oenb[29]
*265 la_oenb[2]
*266 la_oenb[30]
*267 la_oenb[31]
*268 la_oenb[32]
*269 la_oenb[33]
*270 la_oenb[34]
*271 la_oenb[35]
*272 la_oenb[36]
*273 la_oenb[37]
*274 la_oenb[38]
*275 la_oenb[39]
*276 la_oenb[3]
*277 la_oenb[40]
*278 la_oenb[41]
*279 la_oenb[42]
*280 la_oenb[43]
*281 la_oenb[44]
*282 la_oenb[45]
*283 la_oenb[46]
*284 la_oenb[47]
*285 la_oenb[48]
*286 la_oenb[49]
*287 la_oenb[4]
*288 la_oenb[50]
*289 la_oenb[51]
*290 la_oenb[52]
*291 la_oenb[53]
*292 la_oenb[54]
*293 la_oenb[55]
*294 la_oenb[56]
*295 la_oenb[57]
*296 la_oenb[58]
*297 la_oenb[59]
*298 la_oenb[5]
*299 la_oenb[60]
*300 la_oenb[61]
*301 la_oenb[62]
*302 la_oenb[63]
*303 la_oenb[6]
*304 la_oenb[7]
*305 la_oenb[8]
*306 la_oenb[9]
*307 user_clock2
*308 user_irq[0]
*309 user_irq[1]
*310 user_irq[2]
*313 wb_clk_i
*314 wb_rst_i
*315 wbs_ack_o
*316 wbs_adr_i[0]
*317 wbs_adr_i[10]
*318 wbs_adr_i[11]
*319 wbs_adr_i[12]
*320 wbs_adr_i[13]
*321 wbs_adr_i[14]
*322 wbs_adr_i[15]
*323 wbs_adr_i[16]
*324 wbs_adr_i[17]
*325 wbs_adr_i[18]
*326 wbs_adr_i[19]
*327 wbs_adr_i[1]
*328 wbs_adr_i[20]
*329 wbs_adr_i[21]
*330 wbs_adr_i[22]
*331 wbs_adr_i[23]
*332 wbs_adr_i[24]
*333 wbs_adr_i[25]
*334 wbs_adr_i[26]
*335 wbs_adr_i[27]
*336 wbs_adr_i[28]
*337 wbs_adr_i[29]
*338 wbs_adr_i[2]
*339 wbs_adr_i[30]
*340 wbs_adr_i[31]
*341 wbs_adr_i[3]
*342 wbs_adr_i[4]
*343 wbs_adr_i[5]
*344 wbs_adr_i[6]
*345 wbs_adr_i[7]
*346 wbs_adr_i[8]
*347 wbs_adr_i[9]
*348 wbs_cyc_i
*349 wbs_dat_i[0]
*350 wbs_dat_i[10]
*351 wbs_dat_i[11]
*352 wbs_dat_i[12]
*353 wbs_dat_i[13]
*354 wbs_dat_i[14]
*355 wbs_dat_i[15]
*356 wbs_dat_i[16]
*357 wbs_dat_i[17]
*358 wbs_dat_i[18]
*359 wbs_dat_i[19]
*360 wbs_dat_i[1]
*361 wbs_dat_i[20]
*362 wbs_dat_i[21]
*363 wbs_dat_i[22]
*364 wbs_dat_i[23]
*365 wbs_dat_i[24]
*366 wbs_dat_i[25]
*367 wbs_dat_i[26]
*368 wbs_dat_i[27]
*369 wbs_dat_i[28]
*370 wbs_dat_i[29]
*371 wbs_dat_i[2]
*372 wbs_dat_i[30]
*373 wbs_dat_i[31]
*374 wbs_dat_i[3]
*375 wbs_dat_i[4]
*376 wbs_dat_i[5]
*377 wbs_dat_i[6]
*378 wbs_dat_i[7]
*379 wbs_dat_i[8]
*380 wbs_dat_i[9]
*381 wbs_dat_o[0]
*382 wbs_dat_o[10]
*383 wbs_dat_o[11]
*384 wbs_dat_o[12]
*385 wbs_dat_o[13]
*386 wbs_dat_o[14]
*387 wbs_dat_o[15]
*388 wbs_dat_o[16]
*389 wbs_dat_o[17]
*390 wbs_dat_o[18]
*391 wbs_dat_o[19]
*392 wbs_dat_o[1]
*393 wbs_dat_o[20]
*394 wbs_dat_o[21]
*395 wbs_dat_o[22]
*396 wbs_dat_o[23]
*397 wbs_dat_o[24]
*398 wbs_dat_o[25]
*399 wbs_dat_o[26]
*400 wbs_dat_o[27]
*401 wbs_dat_o[28]
*402 wbs_dat_o[29]
*403 wbs_dat_o[2]
*404 wbs_dat_o[30]
*405 wbs_dat_o[31]
*406 wbs_dat_o[3]
*407 wbs_dat_o[4]
*408 wbs_dat_o[5]
*409 wbs_dat_o[6]
*410 wbs_dat_o[7]
*411 wbs_dat_o[8]
*412 wbs_dat_o[9]
*413 wbs_sel_i[0]
*414 wbs_sel_i[1]
*415 wbs_sel_i[2]
*416 wbs_sel_i[3]
*417 wbs_stb_i
*418 wbs_we_i
*419 Top_Module_4_ALU

*PORTS
io_in[0] I
io_in[10] I
io_in[11] I
io_in[12] I
io_in[13] I
io_in[14] I
io_in[15] I
io_in[16] I
io_in[17] I
io_in[18] I
io_in[19] I
io_in[1] I
io_in[20] I
io_in[21] I
io_in[22] I
io_in[23] I
io_in[24] I
io_in[25] I
io_in[26] I
io_in[27] I
io_in[28] I
io_in[29] I
io_in[2] I
io_in[30] I
io_in[31] I
io_in[32] I
io_in[33] I
io_in[34] I
io_in[35] I
io_in[36] I
io_in[37] I
io_in[3] I
io_in[4] I
io_in[5] I
io_in[6] I
io_in[7] I
io_in[8] I
io_in[9] I
io_oeb[0] O
io_oeb[10] O
io_oeb[11] O
io_oeb[12] O
io_oeb[13] O
io_oeb[14] O
io_oeb[15] O
io_oeb[16] O
io_oeb[17] O
io_oeb[18] O
io_oeb[19] O
io_oeb[1] O
io_oeb[20] O
io_oeb[21] O
io_oeb[22] O
io_oeb[23] O
io_oeb[24] O
io_oeb[25] O
io_oeb[26] O
io_oeb[27] O
io_oeb[28] O
io_oeb[29] O
io_oeb[2] O
io_oeb[30] O
io_oeb[31] O
io_oeb[32] O
io_oeb[33] O
io_oeb[34] O
io_oeb[35] O
io_oeb[36] O
io_oeb[37] O
io_oeb[3] O
io_oeb[4] O
io_oeb[5] O
io_oeb[6] O
io_oeb[7] O
io_oeb[8] O
io_oeb[9] O
io_out[0] O
io_out[10] O
io_out[11] O
io_out[12] O
io_out[13] O
io_out[14] O
io_out[15] O
io_out[16] O
io_out[17] O
io_out[18] O
io_out[19] O
io_out[1] O
io_out[20] O
io_out[21] O
io_out[22] O
io_out[23] O
io_out[24] O
io_out[25] O
io_out[26] O
io_out[27] O
io_out[28] O
io_out[29] O
io_out[2] O
io_out[30] O
io_out[31] O
io_out[32] O
io_out[33] O
io_out[34] O
io_out[35] O
io_out[36] O
io_out[37] O
io_out[3] O
io_out[4] O
io_out[5] O
io_out[6] O
io_out[7] O
io_out[8] O
io_out[9] O
la_data_in[0] I
la_data_in[10] I
la_data_in[11] I
la_data_in[12] I
la_data_in[13] I
la_data_in[14] I
la_data_in[15] I
la_data_in[16] I
la_data_in[17] I
la_data_in[18] I
la_data_in[19] I
la_data_in[1] I
la_data_in[20] I
la_data_in[21] I
la_data_in[22] I
la_data_in[23] I
la_data_in[24] I
la_data_in[25] I
la_data_in[26] I
la_data_in[27] I
la_data_in[28] I
la_data_in[29] I
la_data_in[2] I
la_data_in[30] I
la_data_in[31] I
la_data_in[32] I
la_data_in[33] I
la_data_in[34] I
la_data_in[35] I
la_data_in[36] I
la_data_in[37] I
la_data_in[38] I
la_data_in[39] I
la_data_in[3] I
la_data_in[40] I
la_data_in[41] I
la_data_in[42] I
la_data_in[43] I
la_data_in[44] I
la_data_in[45] I
la_data_in[46] I
la_data_in[47] I
la_data_in[48] I
la_data_in[49] I
la_data_in[4] I
la_data_in[50] I
la_data_in[51] I
la_data_in[52] I
la_data_in[53] I
la_data_in[54] I
la_data_in[55] I
la_data_in[56] I
la_data_in[57] I
la_data_in[58] I
la_data_in[59] I
la_data_in[5] I
la_data_in[60] I
la_data_in[61] I
la_data_in[62] I
la_data_in[63] I
la_data_in[6] I
la_data_in[7] I
la_data_in[8] I
la_data_in[9] I
la_data_out[0] O
la_data_out[10] O
la_data_out[11] O
la_data_out[12] O
la_data_out[13] O
la_data_out[14] O
la_data_out[15] O
la_data_out[16] O
la_data_out[17] O
la_data_out[18] O
la_data_out[19] O
la_data_out[1] O
la_data_out[20] O
la_data_out[21] O
la_data_out[22] O
la_data_out[23] O
la_data_out[24] O
la_data_out[25] O
la_data_out[26] O
la_data_out[27] O
la_data_out[28] O
la_data_out[29] O
la_data_out[2] O
la_data_out[30] O
la_data_out[31] O
la_data_out[32] O
la_data_out[33] O
la_data_out[34] O
la_data_out[35] O
la_data_out[36] O
la_data_out[37] O
la_data_out[38] O
la_data_out[39] O
la_data_out[3] O
la_data_out[40] O
la_data_out[41] O
la_data_out[42] O
la_data_out[43] O
la_data_out[44] O
la_data_out[45] O
la_data_out[46] O
la_data_out[47] O
la_data_out[48] O
la_data_out[49] O
la_data_out[4] O
la_data_out[50] O
la_data_out[51] O
la_data_out[52] O
la_data_out[53] O
la_data_out[54] O
la_data_out[55] O
la_data_out[56] O
la_data_out[57] O
la_data_out[58] O
la_data_out[59] O
la_data_out[5] O
la_data_out[60] O
la_data_out[61] O
la_data_out[62] O
la_data_out[63] O
la_data_out[6] O
la_data_out[7] O
la_data_out[8] O
la_data_out[9] O
la_oenb[0] I
la_oenb[10] I
la_oenb[11] I
la_oenb[12] I
la_oenb[13] I
la_oenb[14] I
la_oenb[15] I
la_oenb[16] I
la_oenb[17] I
la_oenb[18] I
la_oenb[19] I
la_oenb[1] I
la_oenb[20] I
la_oenb[21] I
la_oenb[22] I
la_oenb[23] I
la_oenb[24] I
la_oenb[25] I
la_oenb[26] I
la_oenb[27] I
la_oenb[28] I
la_oenb[29] I
la_oenb[2] I
la_oenb[30] I
la_oenb[31] I
la_oenb[32] I
la_oenb[33] I
la_oenb[34] I
la_oenb[35] I
la_oenb[36] I
la_oenb[37] I
la_oenb[38] I
la_oenb[39] I
la_oenb[3] I
la_oenb[40] I
la_oenb[41] I
la_oenb[42] I
la_oenb[43] I
la_oenb[44] I
la_oenb[45] I
la_oenb[46] I
la_oenb[47] I
la_oenb[48] I
la_oenb[49] I
la_oenb[4] I
la_oenb[50] I
la_oenb[51] I
la_oenb[52] I
la_oenb[53] I
la_oenb[54] I
la_oenb[55] I
la_oenb[56] I
la_oenb[57] I
la_oenb[58] I
la_oenb[59] I
la_oenb[5] I
la_oenb[60] I
la_oenb[61] I
la_oenb[62] I
la_oenb[63] I
la_oenb[6] I
la_oenb[7] I
la_oenb[8] I
la_oenb[9] I
user_clock2 I
user_irq[0] O
user_irq[1] O
user_irq[2] O
wb_clk_i I
wb_rst_i I
wbs_ack_o O
wbs_adr_i[0] I
wbs_adr_i[10] I
wbs_adr_i[11] I
wbs_adr_i[12] I
wbs_adr_i[13] I
wbs_adr_i[14] I
wbs_adr_i[15] I
wbs_adr_i[16] I
wbs_adr_i[17] I
wbs_adr_i[18] I
wbs_adr_i[19] I
wbs_adr_i[1] I
wbs_adr_i[20] I
wbs_adr_i[21] I
wbs_adr_i[22] I
wbs_adr_i[23] I
wbs_adr_i[24] I
wbs_adr_i[25] I
wbs_adr_i[26] I
wbs_adr_i[27] I
wbs_adr_i[28] I
wbs_adr_i[29] I
wbs_adr_i[2] I
wbs_adr_i[30] I
wbs_adr_i[31] I
wbs_adr_i[3] I
wbs_adr_i[4] I
wbs_adr_i[5] I
wbs_adr_i[6] I
wbs_adr_i[7] I
wbs_adr_i[8] I
wbs_adr_i[9] I
wbs_cyc_i I
wbs_dat_i[0] I
wbs_dat_i[10] I
wbs_dat_i[11] I
wbs_dat_i[12] I
wbs_dat_i[13] I
wbs_dat_i[14] I
wbs_dat_i[15] I
wbs_dat_i[16] I
wbs_dat_i[17] I
wbs_dat_i[18] I
wbs_dat_i[19] I
wbs_dat_i[1] I
wbs_dat_i[20] I
wbs_dat_i[21] I
wbs_dat_i[22] I
wbs_dat_i[23] I
wbs_dat_i[24] I
wbs_dat_i[25] I
wbs_dat_i[26] I
wbs_dat_i[27] I
wbs_dat_i[28] I
wbs_dat_i[29] I
wbs_dat_i[2] I
wbs_dat_i[30] I
wbs_dat_i[31] I
wbs_dat_i[3] I
wbs_dat_i[4] I
wbs_dat_i[5] I
wbs_dat_i[6] I
wbs_dat_i[7] I
wbs_dat_i[8] I
wbs_dat_i[9] I
wbs_dat_o[0] O
wbs_dat_o[10] O
wbs_dat_o[11] O
wbs_dat_o[12] O
wbs_dat_o[13] O
wbs_dat_o[14] O
wbs_dat_o[15] O
wbs_dat_o[16] O
wbs_dat_o[17] O
wbs_dat_o[18] O
wbs_dat_o[19] O
wbs_dat_o[1] O
wbs_dat_o[20] O
wbs_dat_o[21] O
wbs_dat_o[22] O
wbs_dat_o[23] O
wbs_dat_o[24] O
wbs_dat_o[25] O
wbs_dat_o[26] O
wbs_dat_o[27] O
wbs_dat_o[28] O
wbs_dat_o[29] O
wbs_dat_o[2] O
wbs_dat_o[30] O
wbs_dat_o[31] O
wbs_dat_o[3] O
wbs_dat_o[4] O
wbs_dat_o[5] O
wbs_dat_o[6] O
wbs_dat_o[7] O
wbs_dat_o[8] O
wbs_dat_o[9] O
wbs_sel_i[0] I
wbs_sel_i[1] I
wbs_sel_i[2] I
wbs_sel_i[3] I
wbs_stb_i I
wbs_we_i I

*D_NET *2 0.47106
*CONN
*P io_in[10] I
*I *419:Operation[0] I *D Top_Module_4_ALU
*CAP
1 io_in[10] 0.000492522
2 *419:Operation[0] 0.00259753
3 *2:11 0.0922213
4 *2:10 0.0896238
5 *2:8 0.0255511
6 *2:7 0.0260436
7 *2:8 *3:8 0.18883
8 *2:8 *302:11 0.0456994
*RES
1 io_in[10] *2:7 8.505 
2 *2:7 *2:8 494.73 
3 *2:8 *2:10 4.5 
4 *2:10 *2:11 694.26 
5 *2:11 *419:Operation[0] 20.025 
*END

*D_NET *3 0.454751
*CONN
*P io_in[11] I
*I *419:Operation[1] I *D Top_Module_4_ALU
*CAP
1 io_in[11] 0.00051408
2 *419:Operation[1] 0.00138116
3 *3:11 0.0930414
4 *3:10 0.0916602
5 *3:8 0.039405
6 *3:7 0.0399191
7 *419:Operation[1] *255:11 0
8 *3:11 *189:11 0
9 *3:11 *235:10 0
10 *2:8 *3:8 0.18883
*RES
1 io_in[11] *3:7 8.685 
2 *3:7 *3:8 543.69 
3 *3:8 *3:10 4.5 
4 *3:10 *3:11 710.19 
5 *3:11 *419:Operation[1] 17.595 
*END

*D_NET *4 0.357788
*CONN
*P io_in[12] I
*I *419:Operation[2] I *D Top_Module_4_ALU
*CAP
1 io_in[12] 0.00100991
2 *419:Operation[2] 0.00466096
3 *4:11 0.112891
4 *4:10 0.10823
5 *4:8 0.0649932
6 *4:7 0.0660031
7 *4:11 *213:14 0
8 *4:11 *247:16 0
*RES
1 io_in[12] *4:7 12.825 
2 *4:7 *4:8 502.11 
3 *4:8 *4:10 4.5 
4 *4:10 *4:11 849.15 
5 *4:11 *419:Operation[2] 38.385 
*END

*D_NET *5 0.445863
*CONN
*P io_in[13] I
*I *419:Operation[3] I *D Top_Module_4_ALU
*CAP
1 io_in[13] 0.0865777
2 *419:Operation[3] 0.000456802
3 *5:11 0.0224778
4 *5:10 0.022021
5 *5:8 0.104387
6 *5:7 0.104387
7 *5:5 0.0865777
8 *5:11 *128:25 0.0026543
9 *5:11 *248:22 0.00218859
10 *5:11 *281:16 0.00664796
11 *5:11 *296:22 0.00743061
12 *5:11 *304:8 5.56516e-05
*RES
1 io_in[13] *5:5 680.625 
2 *5:5 *5:7 4.5 
3 *5:7 *5:8 793.71 
4 *5:8 *5:10 4.5 
5 *5:10 *5:11 210.15 
6 *5:11 *419:Operation[3] 16.3565 
*END

*D_NET *115 0.144411
*CONN
*P la_data_in[0] I
*I *419:a_operand[0] I *D Top_Module_4_ALU
*CAP
1 la_data_in[0] 0.000358926
2 *419:a_operand[0] 0.00048824
3 *115:16 0.00668697
4 *115:15 0.00619873
5 *115:13 0.0338083
6 *115:11 0.0341672
7 *115:11 *177:12 0.000387534
8 *115:16 *132:16 0.012283
9 *115:16 *148:18 0.00619095
10 *115:16 *232:8 0.000383929
11 *115:16 *241:8 0.0258657
12 *115:16 *273:14 0.0175918
*RES
1 la_data_in[0] *115:11 3.015 
2 *115:11 *115:13 243.09 
3 *115:13 *115:15 4.5 
4 *115:15 *115:16 147.33 
5 *115:16 *419:a_operand[0] 7.605 
*END

*D_NET *116 0.246582
*CONN
*P la_data_in[10] I
*I *419:a_operand[10] I *D Top_Module_4_ALU
*CAP
1 la_data_in[10] 0.00034474
2 *419:a_operand[10] 0.0038585
3 *116:16 0.0422589
4 *116:15 0.0384004
5 *116:13 0.0367196
6 *116:11 0.0370644
7 *419:a_operand[10] *419:a_operand[42] 0.000127616
8 *419:a_operand[10] *166:16 0
9 *419:a_operand[10] *239:14 0.000310307
10 *116:11 *205:13 0.000298343
11 *116:13 *183:12 0
12 *116:13 *306:7 0.000521051
13 *116:16 *127:16 0.0866779
*RES
1 la_data_in[10] *116:11 3.015 
2 *116:11 *116:13 266.85 
3 *116:13 *116:15 4.5 
4 *116:15 *116:16 353.79 
5 *116:16 *419:a_operand[10] 42.885 
*END

*D_NET *117 0.106393
*CONN
*P la_data_in[11] I
*I *419:a_operand[11] I *D Top_Module_4_ALU
*CAP
1 la_data_in[11] 0.000120671
2 *419:a_operand[11] 0.00264503
3 *117:16 0.0262974
4 *117:15 0.0236524
5 *117:13 0.0267786
6 *117:11 0.0268992
7 *117:16 *419:b_operand[36] 0
*RES
1 la_data_in[11] *117:11 1.395 
2 *117:11 *117:13 193.95 
3 *117:13 *117:15 4.5 
4 *117:15 *117:16 183.78 
5 *117:16 *419:a_operand[11] 20.565 
*END

*D_NET *118 0.135238
*CONN
*P la_data_in[12] I
*I *419:a_operand[12] I *D Top_Module_4_ALU
*CAP
1 la_data_in[12] 0.000251365
2 *419:a_operand[12] 0.00127085
3 *118:19 0.00946877
4 *118:18 0.00819792
5 *118:16 0.0149448
6 *118:15 0.0149448
7 *118:13 0.00752107
8 *118:11 0.00777243
9 *118:11 la_data_out[12] 1.6276e-05
10 *118:11 *205:13 0.000225279
11 *118:13 *245:11 0
12 *118:16 *419:b_operand[38] 0
13 *118:16 *273:8 0.0706241
14 *118:16 *274:16 0
15 *118:19 *419:a_operand[26] 0
*RES
1 la_data_in[12] *118:11 2.475 
2 *118:11 *118:13 49.59 
3 *118:13 *118:15 4.5 
4 *118:15 *118:16 201.33 
5 *118:16 *118:18 4.5 
6 *118:18 *118:19 60.93 
7 *118:19 *419:a_operand[12] 13.725 
*END

*D_NET *119 0.125531
*CONN
*P la_data_in[13] I
*I *419:a_operand[13] I *D Top_Module_4_ALU
*CAP
1 la_data_in[13] 0.00055526
2 *419:a_operand[13] 0.000319066
3 *119:11 0.00715088
4 *119:8 0.024216
5 *119:7 0.0179394
6 *119:8 *122:8 0.0199653
7 *119:8 *126:8 0.0553851
*RES
1 la_data_in[13] *119:7 8.505 
2 *119:7 *119:8 248.67 
3 *119:8 *119:11 47.97 
4 *119:11 *419:a_operand[13] 11.5904 
*END

*D_NET *120 0.207262
*CONN
*P la_data_in[14] I
*I *419:a_operand[14] I *D Top_Module_4_ALU
*CAP
1 la_data_in[14] 0.000189615
2 *419:a_operand[14] 0.0010227
3 *120:16 0.0180892
4 *120:15 0.0170665
5 *120:13 0.0337183
6 *120:11 0.0339079
7 *120:16 *121:16 0.103268
8 *120:16 *174:12 0
*RES
1 la_data_in[14] *120:11 1.935 
2 *120:11 *120:13 246.15 
3 *120:13 *120:15 4.5 
4 *120:15 *120:16 258.57 
5 *120:16 *419:a_operand[14] 10.665 
*END

*D_NET *121 0.346587
*CONN
*P la_data_in[15] I
*I *419:a_operand[15] I *D Top_Module_4_ALU
*CAP
1 la_data_in[15] 0.00034474
2 *419:a_operand[15] 0.00105745
3 *121:16 0.0105444
4 *121:15 0.00948693
5 *121:13 0.0336415
6 *121:11 0.0339862
7 *419:a_operand[15] *148:18 0.00103049
8 *419:a_operand[15] *211:14 0.000182342
9 *121:11 *205:13 0.000298343
10 *121:13 *248:15 2.18956e-05
11 *121:16 *253:16 0.152725
12 *120:16 *121:16 0.103268
*RES
1 la_data_in[15] *121:11 3.015 
2 *121:11 *121:13 245.97 
3 *121:13 *121:15 4.5 
4 *121:15 *121:16 382.95 
5 *121:16 *419:a_operand[15] 22.185 
*END

*D_NET *122 0.240787
*CONN
*P la_data_in[16] I
*I *419:a_operand[16] I *D Top_Module_4_ALU
*CAP
1 la_data_in[16] 0.000493335
2 *419:a_operand[16] 0.000399193
3 *122:11 0.00718109
4 *122:8 0.0106993
5 *122:7 0.00441077
6 *122:8 *126:8 0.0715389
7 *122:8 *130:8 0.126099
8 *119:8 *122:8 0.0199653
*RES
1 la_data_in[16] *122:7 8.145 
2 *122:7 *122:8 316.71 
3 *122:8 *122:11 48.33 
4 *122:11 *419:a_operand[16] 12.2478 
*END

*D_NET *123 0.118935
*CONN
*P la_data_in[17] I
*I *419:a_operand[17] I *D Top_Module_4_ALU
*CAP
1 la_data_in[17] 0.000298251
2 *419:a_operand[17] 0.00259811
3 *123:16 0.0368194
4 *123:15 0.0342213
5 *123:13 0.0222289
6 *123:11 0.0225271
7 *419:a_operand[17] *212:9 0
8 *123:11 la_data_out[17] 1.6276e-05
9 *123:11 *205:13 0.000225279
10 *123:13 *250:11 0
11 *123:16 *252:16 0
*RES
1 la_data_in[17] *123:11 2.475 
2 *123:11 *123:13 131.85 
3 *123:13 *123:15 4.5 
4 *123:15 *123:16 237.78 
5 *123:16 *419:a_operand[17] 20.025 
*END

*D_NET *124 0.185412
*CONN
*P la_data_in[18] I
*I *419:a_operand[18] I *D Top_Module_4_ALU
*CAP
1 la_data_in[18] 0.00506594
2 *419:a_operand[18] 0
3 *124:24 0.00313063
4 *124:12 0.0263542
5 *124:11 0.0282895
6 *124:12 *162:16 0.0128482
7 *124:12 *171:14 0.106524
8 *124:24 *128:21 0
9 *124:24 *233:10 0.00140197
10 *124:24 *276:16 0.00179799
11 *124:24 *277:12 0
*RES
1 la_data_in[18] *124:11 38.745 
2 *124:11 *124:12 337.95 
3 *124:12 *124:24 47.3165 
4 *124:24 *419:a_operand[18] 4.5 
*END

*D_NET *125 0.120371
*CONN
*P la_data_in[19] I
*I *419:a_operand[19] I *D Top_Module_4_ALU
*CAP
1 la_data_in[19] 0.000189615
2 *419:a_operand[19] 0.00123654
3 *125:21 0.00642877
4 *125:16 0.0395538
5 *125:15 0.0343616
6 *125:13 0.0192057
7 *125:11 0.0193953
8 *125:11 *189:18 0
9 *125:13 *252:11 0
*RES
1 la_data_in[19] *125:11 1.935 
2 *125:11 *125:13 138.51 
3 *125:13 *125:15 4.5 
4 *125:15 *125:16 266.13 
5 *125:16 *125:21 47.97 
6 *125:21 *419:a_operand[19] 9.225 
*END

*D_NET *126 0.237399
*CONN
*P la_data_in[1] I
*I *419:a_operand[1] I *D Top_Module_4_ALU
*CAP
1 la_data_in[1] 0.000540267
2 *419:a_operand[1] 0.000405783
3 *126:11 0.00531125
4 *126:10 0.00490547
5 *126:8 0.0137532
6 *126:7 0.0142935
7 *126:8 *130:8 0.0180105
8 *126:11 *419:b_operand[26] 0.01082
9 *126:11 *242:11 0.00304833
10 *126:11 *246:11 0.00532121
11 *126:11 *254:19 0.000313583
12 *126:11 *277:15 0.0302092
13 *126:11 *279:14 0.00354321
14 *119:8 *126:8 0.0553851
15 *122:8 *126:8 0.0715389
*RES
1 la_data_in[1] *126:7 8.325 
2 *126:7 *126:8 306.27 
3 *126:8 *126:10 4.5 
4 *126:10 *126:11 117.45 
5 *126:11 *419:a_operand[1] 16.74 
*END

*D_NET *127 0.236145
*CONN
*P la_data_in[20] I
*I *419:a_operand[20] I *D Top_Module_4_ALU
*CAP
1 la_data_in[20] 0.000373354
2 *419:a_operand[20] 0.00430979
3 *127:16 0.0375745
4 *127:15 0.0332647
5 *127:13 0.0365067
6 *127:11 0.0368801
7 *419:a_operand[20] *301:8 0.000237266
8 *127:11 *205:13 0.000298343
9 *127:13 *253:11 2.18956e-05
10 *116:16 *127:16 0.0866779
*RES
1 la_data_in[20] *127:11 3.015 
2 *127:11 *127:13 267.03 
3 *127:13 *127:15 4.5 
4 *127:15 *127:16 321.39 
5 *127:16 *419:a_operand[20] 32.985 
*END

*D_NET *128 0.297962
*CONN
*P la_data_in[21] I
*I *419:a_operand[21] I *D Top_Module_4_ALU
*CAP
1 la_data_in[21] 0.00546621
2 *419:a_operand[21] 0.000121133
3 *128:25 0.00302181
4 *128:21 0.00447947
5 *128:16 0.0116712
6 *128:15 0.0155586
7 *128:16 *155:16 0.150516
8 *128:16 *190:14 0.078608
9 *128:16 *240:11 0.00991919
10 *128:25 *248:22 0.015946
11 *5:11 *128:25 0.0026543
12 *124:24 *128:21 0
*RES
1 la_data_in[21] *128:15 42.165 
2 *128:15 *128:16 378.09 
3 *128:16 *128:21 17.73 
4 *128:21 *128:25 49.68 
5 *128:25 *419:a_operand[21] 9.96652 
*END

*D_NET *129 0.0950417
*CONN
*P la_data_in[22] I
*I *419:a_operand[22] I *D Top_Module_4_ALU
*CAP
1 la_data_in[22] 0.000251365
2 *419:a_operand[22] 0.00249853
3 *129:16 0.0392784
4 *129:15 0.0367799
5 *129:13 0.00787029
6 *129:11 0.00812166
7 *129:11 *193:11 1.6276e-05
8 *129:11 *205:13 0.000225279
9 *129:13 *256:11 0
*RES
1 la_data_in[22] *129:11 2.475 
2 *129:11 *129:13 53.55 
3 *129:13 *129:15 4.5 
4 *129:15 *129:16 283.68 
5 *129:16 *419:a_operand[22] 19.485 
*END

*D_NET *130 0.231819
*CONN
*P la_data_in[23] I
*I *419:a_operand[23] I *D Top_Module_4_ALU
*CAP
1 la_data_in[23] 0.000454377
2 *419:a_operand[23] 0.000399193
3 *130:11 0.00688218
4 *130:8 0.043001
5 *130:7 0.0369724
6 *122:8 *130:8 0.126099
7 *126:8 *130:8 0.0180105
*RES
1 la_data_in[23] *130:7 7.965 
2 *130:7 *130:8 478.17 
3 *130:8 *130:11 48.51 
4 *130:11 *419:a_operand[23] 12.2478 
*END

*D_NET *131 0.409922
*CONN
*P la_data_in[24] I
*I *419:a_operand[24] I *D Top_Module_4_ALU
*CAP
1 la_data_in[24] 0.0073361
2 *419:a_operand[24] 0.000101891
3 *131:22 0.00236643
4 *131:16 0.00574082
5 *131:15 0.0108124
6 *131:15 *195:15 0
7 *131:15 *258:7 0
8 *131:16 *261:16 0.205091
9 *131:16 *262:8 0.135179
10 *131:16 *276:16 0.0320986
11 *131:22 *419:a_operand[51] 0.00352143
12 *131:22 *179:13 0.000215247
13 *131:22 *246:11 0.00506325
14 *131:22 *279:14 0.00239563
*RES
1 la_data_in[24] *131:15 48.285 
2 *131:15 *131:16 515.43 
3 *131:16 *131:22 45.9 
4 *131:22 *419:a_operand[24] 9.81 
*END

*D_NET *132 0.261638
*CONN
*P la_data_in[25] I
*I *419:a_operand[25] I *D Top_Module_4_ALU
*CAP
1 la_data_in[25] 0.00034474
2 *419:a_operand[25] 0.000474274
3 *132:16 0.0164629
4 *132:15 0.0159886
5 *132:13 0.0328268
6 *132:11 0.0331715
7 *132:11 *205:13 0.000298343
8 *132:13 *259:13 2.18956e-05
9 *132:16 *232:8 0.133924
10 *132:16 *273:14 0.0158423
11 *115:16 *132:16 0.012283
*RES
1 la_data_in[25] *132:11 3.015 
2 *132:11 *132:13 242.73 
3 *132:13 *132:15 4.5 
4 *132:15 *132:16 335.79 
5 *132:16 *419:a_operand[25] 7.245 
*END

*D_NET *133 0.121006
*CONN
*P la_data_in[26] I
*I *419:a_operand[26] I *D Top_Module_4_ALU
*CAP
1 la_data_in[26] 0.000120671
2 *419:a_operand[26] 0.00266678
3 *133:16 0.0452552
4 *133:15 0.0425885
5 *133:13 0.0151273
6 *133:11 0.015248
7 *118:19 *419:a_operand[26] 0
*RES
1 la_data_in[26] *133:11 1.395 
2 *133:11 *133:13 108.81 
3 *133:13 *133:15 4.5 
4 *133:15 *133:16 329.49 
5 *133:16 *419:a_operand[26] 28.935 
*END

*D_NET *134 0.186442
*CONN
*P la_data_in[27] I
*I *419:a_operand[27] I *D Top_Module_4_ALU
*CAP
1 la_data_in[27] 0.000296719
2 *419:a_operand[27] 0.00658103
3 *134:16 0.0551507
4 *134:15 0.0485696
5 *134:13 0.0376563
6 *134:11 0.037953
7 *134:11 *198:25 9.64038e-06
8 *134:11 *205:13 0.000225279
9 *134:13 *261:15 0
*RES
1 la_data_in[27] *134:11 2.475 
2 *134:11 *134:13 277.65 
3 *134:13 *134:15 4.5 
4 *134:15 *134:16 380.79 
5 *134:16 *419:a_operand[27] 42.525 
*END

*D_NET *135 0.147123
*CONN
*P la_data_in[28] I
*I *419:a_operand[28] I *D Top_Module_4_ALU
*CAP
1 la_data_in[28] 0.0046727
2 *419:a_operand[28] 0.00411751
3 *135:12 0.0492413
4 *135:11 0.0451238
5 *135:9 0.0196296
6 *135:7 0.0243023
7 *419:a_operand[28] *159:16 3.60642e-05
8 *135:12 *419:b_operand[59] 0
9 *135:12 *297:18 0
*RES
1 la_data_in[28] *135:7 32.085 
2 *135:7 *135:9 147.24 
3 *135:9 *135:11 4.5 
4 *135:11 *135:12 349.47 
5 *135:12 *419:a_operand[28] 39.735 
*END

*D_NET *136 0.573598
*CONN
*P la_data_in[29] I
*I *419:a_operand[29] I *D Top_Module_4_ALU
*CAP
1 la_data_in[29] 0.00585009
2 *419:a_operand[29] 0.00260131
3 *136:19 0.00492584
4 *136:18 0.00232453
5 *136:16 0.00350467
6 *136:15 0.00935476
7 *136:15 la_data_out[29] 0
8 *136:15 *263:15 0
9 *136:16 *143:16 0.226779
10 *136:16 *182:16 0.167687
11 *136:16 *248:16 0.00388773
12 *136:16 *296:16 0.052453
13 *136:19 *200:13 0.0502716
14 *136:19 *284:11 0.0439585
*RES
1 la_data_in[29] *136:15 45.225 
2 *136:15 *136:16 575.55 
3 *136:16 *136:18 4.5 
4 *136:18 *136:19 136.35 
5 *136:19 *419:a_operand[29] 32.67 
*END

*D_NET *137 0.104257
*CONN
*P la_data_in[2] I
*I *419:a_operand[2] I *D Top_Module_4_ALU
*CAP
1 la_data_in[2] 0.00151735
2 *419:a_operand[2] 0
3 *137:16 0.00629228
4 *137:8 0.0173845
5 *137:7 0.0126096
6 *137:8 *169:8 0
7 *137:8 *233:13 0.0664537
*RES
1 la_data_in[2] *137:7 14.265 
2 *137:7 *137:8 166.59 
3 *137:8 *137:16 49.9578 
4 *137:16 *419:a_operand[2] 4.5 
*END

*D_NET *138 0.262243
*CONN
*P la_data_in[30] I
*I *419:a_operand[30] I *D Top_Module_4_ALU
*CAP
1 la_data_in[30] 0.00034474
2 *419:a_operand[30] 0.000113178
3 *138:22 0.0029798
4 *138:21 0.00326575
5 *138:16 0.0476667
6 *138:15 0.0472676
7 *138:13 0.0318076
8 *138:11 0.0321524
9 *138:11 *205:13 0.000298343
10 *138:13 *264:7 0.000508184
11 *138:21 *290:13 0
12 *138:22 *141:14 0.0430694
13 *138:22 *142:16 0.0117702
14 *138:22 *148:12 0.00858676
15 *138:22 *222:14 0.0324119
*RES
1 la_data_in[30] *138:11 3.015 
2 *138:11 *138:13 238.41 
3 *138:13 *138:15 4.5 
4 *138:15 *138:16 367.47 
5 *138:16 *138:21 11.61 
6 *138:21 *138:22 199.35 
7 *138:22 *419:a_operand[30] 0.945 
*END

*D_NET *139 0.485484
*CONN
*P la_data_in[31] I
*I *419:a_operand[31] I *D Top_Module_4_ALU
*CAP
1 la_data_in[31] 0.0064973
2 *419:a_operand[31] 0.0031954
3 *139:21 0.00506201
4 *139:16 0.012157
5 *139:15 0.0102904
6 *139:13 0.0064973
7 *139:16 *259:16 0.199039
8 *139:16 *277:12 0.231206
9 *139:16 *304:8 0.000408814
10 *139:21 *182:13 0.0111303
*RES
1 la_data_in[31] *139:13 45.585 
2 *139:13 *139:15 4.5 
3 *139:15 *139:16 597.51 
4 *139:16 *139:21 37.35 
5 *139:21 *419:a_operand[31] 30.15 
*END

*D_NET *140 0.146575
*CONN
*P la_data_in[32] I
*I *419:a_operand[32] I *D Top_Module_4_ALU
*CAP
1 la_data_in[32] 0.000251365
2 *419:a_operand[32] 0.00193476
3 *140:19 0.0151645
4 *140:18 0.0132297
5 *140:16 0.049211
6 *140:15 0.049211
7 *140:13 0.00853963
8 *140:11 0.008791
9 *140:11 la_data_out[32] 1.6276e-05
10 *140:11 *205:13 0.000225279
11 *140:13 *267:15 0
12 *140:16 *210:7 0
13 *140:16 *210:9 0
*RES
1 la_data_in[32] *140:11 2.475 
2 *140:11 *140:13 60.21 
3 *140:13 *140:15 4.5 
4 *140:15 *140:16 379.53 
5 *140:16 *140:18 4.5 
6 *140:18 *140:19 98.91 
7 *140:19 *419:a_operand[32] 19.125 
*END

*D_NET *141 0.357336
*CONN
*P la_data_in[33] I
*I *419:a_operand[33] I *D Top_Module_4_ALU
*CAP
1 la_data_in[33] 0.000875453
2 *419:a_operand[33] 0.000125617
3 *141:14 0.00595777
4 *141:13 0.00583215
5 *141:11 0.0315776
6 *141:10 0.0315776
7 *141:8 0.00495172
8 *141:7 0.00582717
9 *141:8 *264:8 0.00740624
10 *141:8 *295:8 0.00482761
11 *141:11 *262:7 0
12 *141:14 *142:16 0.0145932
13 *141:14 *148:12 0.0224415
14 *141:14 *156:16 0.150245
15 *141:14 *222:14 0.0280273
16 *138:22 *141:14 0.0430694
*RES
1 la_data_in[33] *141:7 11.025 
2 *141:7 *141:8 50.31 
3 *141:8 *141:10 4.5 
4 *141:10 *141:11 234.27 
5 *141:11 *141:13 4.5 
6 *141:13 *141:14 454.23 
7 *141:14 *419:a_operand[33] 5.265 
*END

*D_NET *142 0.34741
*CONN
*P la_data_in[34] I
*I *419:a_operand[34] I *D Top_Module_4_ALU
*CAP
1 la_data_in[34] 0.000189615
2 *419:a_operand[34] 0.000546012
3 *142:16 0.0414733